<?xml version='1.0' encoding='UTF-8'?>
<routes>
    <vType id="Bus" vClass="bus" maxSpeed="13.89" guiShape="bus" emissionClass="HBEFA3/Bus" />
    <vType id="Car" vClass="passenger" maxSpeed="13.89" guiShape="passenger" emissionClass="HBEFA3/PC_G_EU4" />
    <vType id="SMV" vClass="motorcycle" maxSpeed="5.56" guiShape="motorcycle" emissionClass="HBEFA3/PC_G_EU4" />
    <vType id="Trailer" vClass="trailer" maxSpeed="13.89" guiShape="truck/trailer" emissionClass="HBEFA3/HDV_D_EU4" />
    <vType id="Truck" vClass="truck" maxSpeed="13.89" guiShape="truck" emissionClass="HBEFA3/HDV_D_EU4" />
    <flow id="Elevated_N1_BTJ_R1" type="Trailer" begin="0.00" end="3600.00" perHour="55.99" from="653007179#0" to="E19" color="255,0,0" />
    <flow id="Elevated_N1_BTJ_R2" type="Trailer" begin="0.00" end="3600.00" perHour="7.00" from="802491129#1" to="E19" color="255,0,0" />
    <flow id="Elevated_N1_BTJ_R3" type="Trailer" begin="0.00" end="3600.00" perHour="7.00" from="409623411" to="E19" color="255,0,0" />
    <flow id="Elevated_Port_BTJ" type="Trailer" begin="0.00" end="3600.00" perHour="21" from="-133487534" to="E19" color="255,0,0">
        <stop busStop="EN" duration="2" />
    </flow>
    <flow id="Elevated_N1_Port_R1" type="Trailer" begin="0.00" end="3600.00" perHour="36.79" from="653007179#0" to="133487534.268" color="0,100,255">
        <stop busStop="ES" duration="2" />
    </flow>
    <flow id="Elevated_N1_Port_R2" type="Trailer" begin="0.00" end="3600.00" perHour="4.60" from="802491129#1" to="133487534.268" color="0,100,255">
        <stop busStop="ES" duration="2" />
    </flow>
    <flow id="Elevated_N1_Port_R3" type="Trailer" begin="0.00" end="3600.00" perHour="4.60" from="409623411" to="133487534.268" color="0,100,255">
        <stop busStop="ES" duration="2" />
    </flow>
    <flow id="Elevated_BTJ_Port" type="Trailer" begin="0.00" end="3600.00" perHour="21" from="-E19" to="133487534.268" color="0,100,255">
        <stop busStop="ES" duration="2" />
    </flow>
    <flow id="Elevated_N1_South_R1" type="Trailer" begin="0.00" end="3600.00" perHour="48.00" from="653007179#0" to="955410878.656.46" color="0,200,0" />
    <flow id="Elevated_N1_South_R2" type="Trailer" begin="0.00" end="3600.00" perHour="6.00" from="802491129#1" to="955410878.656.46" color="0,200,0" />
    <flow id="Elevated_N1_South_R3" type="Trailer" begin="0.00" end="3600.00" perHour="6.00" from="409623411" to="955410878.656.46" color="0,200,0" />
    <flow id="Elevated_BTJ_N1_R1" type="Trailer" begin="0.00" end="3600.00" perHour="55.992" from="-E19" to="653007172#3.272.351" color="255,255,0" />
    <flow id="Elevated_BTJ_N1_R2" type="Trailer" begin="0.00" end="3600.00" perHour="6.999" from="-E19" to="955410838#0" color="255,255,0" />
    <flow id="Elevated_BTJ_N1_R3" type="Trailer" begin="0.00" end="3600.00" perHour="6.999" from="-E19" to="434733273" color="255,255,0" />
    <flow id="Elevated_Port_N1_R1" type="Trailer" begin="0.00" end="3600.00" perHour="36.792" from="-133487534" to="653007172#3.272.351" color="255,255,0">
        <stop busStop="EN" duration="2" />
    </flow>
    <flow id="Elevated_Port_N1_R2" type="Trailer" begin="0.00" end="3600.00" perHour="4.599" from="-133487534" to="955410838#0" color="255,255,0">
        <stop busStop="EN" duration="2" />
    </flow>
    <flow id="Elevated_Port_N1_R3" type="Trailer" begin="0.00" end="3600.00" perHour="4.599" from="-133487534" to="434733273" color="255,255,0">
        <stop busStop="EN" duration="2" />
    </flow>
    <flow id="Elevated_Port_South" type="Trailer" begin="0.00" end="3600.00" perHour="33" from="-133487534" to="955410878.656.46" color="0,200,0">
        <stop busStop="EN" duration="2" />
    </flow>
    <flow id="Bus_Elevated_BTJ_N1_R1" type="Bus" begin="0.00" end="3600.00" perHour="216.792" from="-E19" to="653007172#3.272.351" color="255,255,0" />
    <flow id="Bus_Elevated_BTJ_N1_R2" type="Bus" begin="0.00" end="3600.00" perHour="27.099" from="-E19" to="955410838#0" color="255,255,0" />
    <flow id="Bus_Elevated_BTJ_N1_R3" type="Bus" begin="0.00" end="3600.00" perHour="27.099" from="-E19" to="434733273" color="255,255,0" />
    <flow id="Truck_Elevated_BTJ_N1_R1" type="Truck" begin="0.00" end="3600.00" perHour="390.408" from="-E19" to="653007172#3.272.351" color="255,255,0" />
    <flow id="Truck_Elevated_BTJ_N1_R2" type="Truck" begin="0.00" end="3600.00" perHour="48.801" from="-E19" to="955410838#0" color="255,255,0" />
    <flow id="Truck_Elevated_BTJ_N1_R3" type="Truck" begin="0.00" end="3600.00" perHour="48.801" from="-E19" to="434733273" color="255,255,0" />
    <flow id="Truck_Elevated_BTJ_Port" type="Truck" begin="0.00" end="3600.00" perHour="21.0" from="-E19" to="133487534.268" color="0,100,255">
        <stop busStop="ES" duration="2" />
    </flow>
    <flow id="Bus_Elevated_N1_BTJ_R1" type="Bus" begin="0.00" end="3600.00" perHour="216.79" from="653007179#0" to="E19" color="255,0,0" />
    <flow id="Bus_Elevated_N1_BTJ_R2" type="Bus" begin="0.00" end="3600.00" perHour="27.10" from="802491129#1" to="E19" color="255,0,0" />
    <flow id="Bus_Elevated_N1_BTJ_R3" type="Bus" begin="0.00" end="3600.00" perHour="27.10" from="409623411" to="E19" color="255,0,0" />
    <flow id="Truck_Elevated_N1_BTJ_R1" type="Truck" begin="0.00" end="3600.00" perHour="390.41" from="653007179#0" to="E19" color="255,0,0" />
    <flow id="Truck_Elevated_N1_BTJ_R2" type="Truck" begin="0.00" end="3600.00" perHour="48.80" from="802491129#1" to="E19" color="255,0,0" />
    <flow id="Truck_Elevated_N1_BTJ_R3" type="Truck" begin="0.00" end="3600.00" perHour="48.80" from="409623411" to="E19" color="255,0,0" />
    <flow id="Bus_Elevated_N1_Port_R1" type="Bus" begin="0.00" end="3600.00" perHour="129.60" from="653007179#0" to="133487534.268" color="0,100,255">
        <stop busStop="ES" duration="2" />
    </flow>
    <flow id="Bus_Elevated_N1_Port_R2" type="Bus" begin="0.00" end="3600.00" perHour="16.20" from="802491129#1" to="133487534.268" color="0,100,255">
        <stop busStop="ES" duration="2" />
    </flow>
    <flow id="Bus_Elevated_N1_Port_R3" type="Bus" begin="0.00" end="3600.00" perHour="16.20" from="409623411" to="133487534.268" color="0,100,255">
        <stop busStop="ES" duration="2" />
    </flow>
    <flow id="Truck_Elevated_N1_Port_R1" type="Truck" begin="0.00" end="3600.00" perHour="255.19" from="653007179#0" to="133487534.268" color="0,100,255">
        <stop busStop="ES" duration="2" />
    </flow>
    <flow id="Truck_Elevated_N1_Port_R2" type="Truck" begin="0.00" end="3600.00" perHour="31.90" from="802491129#1" to="133487534.268" color="0,100,255">
        <stop busStop="ES" duration="2" />
    </flow>
    <flow id="Truck_Elevated_N1_Port_R3" type="Truck" begin="0.00" end="3600.00" perHour="31.90" from="409623411" to="133487534.268" color="0,100,255">
        <stop busStop="ES" duration="2" />
    </flow>
    <flow id="Bus_Elevated_N1_South_R1" type="Bus" begin="0.00" end="3600.00" perHour="52.01" from="653007179#0" to="955410878.656.46" color="0,200,0" />
    <flow id="Bus_Elevated_N1_South_R2" type="Bus" begin="0.00" end="3600.00" perHour="6.50" from="802491129#1" to="955410878.656.46" color="0,200,0" />
    <flow id="Bus_Elevated_N1_South_R3" type="Bus" begin="0.00" end="3600.00" perHour="6.50" from="409623411" to="955410878.656.46" color="0,200,0" />
    <flow id="Truck_Elevated_N1_South_R1" type="Truck" begin="0.00" end="3600.00" perHour="333.60" from="653007179#0" to="955410878.656.46" color="0,200,0" />
    <flow id="Truck_Elevated_N1_South_R2" type="Truck" begin="0.00" end="3600.00" perHour="41.70" from="802491129#1" to="955410878.656.46" color="0,200,0" />
    <flow id="Truck_Elevated_N1_South_R3" type="Truck" begin="0.00" end="3600.00" perHour="41.70" from="409623411" to="955410878.656.46" color="0,200,0" />
    <flow id="Truck_Elevated_Port_BTJ" type="Truck" begin="0.00" end="3600.00" perHour="21.0" from="-133487534" to="E19" color="255,0,0">
        <stop busStop="EN" duration="2" />
    </flow>
    <flow id="Bus_Elevated_Port_N1_R1" type="Bus" begin="0.00" end="3600.00" perHour="129.600" from="-133487534" to="653007172#3.272.351" color="255,255,0">
        <stop busStop="EN" duration="2" />
    </flow>
    <flow id="Bus_Elevated_Port_N1_R2" type="Bus" begin="0.00" end="3600.00" perHour="16.200" from="-133487534" to="955410838#0" color="255,255,0">
        <stop busStop="EN" duration="2" />
    </flow>
    <flow id="Bus_Elevated_Port_N1_R3" type="Bus" begin="0.00" end="3600.00" perHour="16.200" from="-133487534" to="434733273" color="255,255,0">
        <stop busStop="EN" duration="2" />
    </flow>
    <flow id="Truck_Elevated_Port_N1_R1" type="Truck" begin="0.00" end="3600.00" perHour="255.192" from="-133487534" to="653007172#3.272.351" color="255,255,0">
        <stop busStop="EN" duration="2" />
    </flow>
    <flow id="Truck_Elevated_Port_N1_R2" type="Truck" begin="0.00" end="3600.00" perHour="31.899" from="-133487534" to="955410838#0" color="255,255,0">
        <stop busStop="EN" duration="2" />
    </flow>
    <flow id="Truck_Elevated_Port_N1_R3" type="Truck" begin="0.00" end="3600.00" perHour="31.899" from="-133487534" to="434733273" color="255,255,0">
        <stop busStop="EN" duration="2" />
    </flow>
    <flow id="Bus_Elevated_Port_South" type="Bus" begin="0.00" end="3600.00" perHour="65.0" from="-133487534" to="955410878.656.46" color="0,200,0">
        <stop busStop="EN" duration="2" />
    </flow>
    <flow id="Truck_Elevated_Port_South" type="Truck" begin="0.00" end="3600.00" perHour="260.0" from="-133487534" to="955410878.656.46" color="0,200,0">
        <stop busStop="EN" duration="2" />
    </flow>
    <flow id="Car_Ground_BTJ_N1_R1" type="Car" begin="0.00" end="3600.00" perHour="91.200" from="-E19" to="O1COPY_-E33.8" color="255,255,0" />
    <flow id="Car_Ground_BTJ_N1_R1b" type="Car" begin="0.00" end="3600.00" perHour="91.200" from="-E19" to="O1COPY_E32.8" color="255,255,0" />
    <flow id="Car_Ground_BTJ_N1_R2" type="Car" begin="0.00" end="3600.00" perHour="22.800" from="-E19" to="955410838#0" color="255,255,0" />
    <flow id="Car_Ground_BTJ_N1_R3" type="Car" begin="0.00" end="3600.00" perHour="22.800" from="-E19" to="434733273" color="255,255,0" />
    <flow id="SMV_Ground_BTJ_N1_R1" type="SMV" begin="0.00" end="3600.00" perHour="27.204" from="-E19" to="O1COPY_-E33.8" color="255,255,0" />
    <flow id="SMV_Ground_BTJ_N1_R1b" type="SMV" begin="0.00" end="3600.00" perHour="27.204" from="-E19" to="O1COPY_E32.8" color="255,255,0" />
    <flow id="SMV_Ground_BTJ_N1_R2" type="SMV" begin="0.00" end="3600.00" perHour="6.801" from="-E19" to="955410838#0" color="255,255,0" />
    <flow id="SMV_Ground_BTJ_N1_R3" type="SMV" begin="0.00" end="3600.00" perHour="6.801" from="-E19" to="434733273" color="255,255,0" />
    <flow id="Car_Ground_N1_BTJ_R1" type="Car" begin="0.00" end="3600.00" perHour="91.20" from="O1COPY_E33.8" to="E19" color="255,0,0" />
    <flow id="Car_Ground_N1_BTJ_R1b" type="Car" begin="0.00" end="3600.00" perHour="91.20" from="O1COPY_-E32.8" to="E19" color="255,0,0" />
    <flow id="Car_Ground_N1_BTJ_R2" type="Car" begin="0.00" end="3600.00" perHour="22.80" from="802491129#1" to="E19" color="255,0,0" />
    <flow id="Car_Ground_N1_BTJ_R3" type="Car" begin="0.00" end="3600.00" perHour="22.80" from="409623411" to="E19" color="255,0,0" />
    <flow id="SMV_Ground_N1_BTJ_R1" type="SMV" begin="0.00" end="3600.00" perHour="27.205" from="O1COPY_E33.8" to="E19" color="255,0,0" />
    <flow id="SMV_Ground_N1_BTJ_R1b" type="SMV" begin="0.00" end="3600.00" perHour="27.205" from="O1COPY_-E32.8" to="E19" color="255,0,0" />
    <flow id="SMV_Ground_N1_BTJ_R2" type="SMV" begin="0.00" end="3600.00" perHour="6.80" from="802491129#1" to="E19" color="255,0,0" />
    <flow id="SMV_Ground_N1_BTJ_R3" type="SMV" begin="0.00" end="3600.00" perHour="6.80" from="409623411" to="E19" color="255,0,0" />
    <flow id="Car_Ground_N1_Port_R1" type="Car" begin="0.00" end="3600.00" perHour="54.805" from="O1COPY_E33.8" to="133487534.268" color="0,100,255">
        <stop busStop="S" duration="2" />
    </flow>
    <flow id="Car_Ground_N1_Port_R1b" type="Car" begin="0.00" end="3600.00" perHour="54.805" from="O1COPY_-E32.8" to="133487534.268" color="0,100,255">
        <stop busStop="S" duration="2" />
    </flow>
    <flow id="Car_Ground_N1_Port_R2" type="Car" begin="0.00" end="3600.00" perHour="13.70" from="802491129#1" to="133487534.268" color="0,100,255">
        <stop busStop="S" duration="2" />
    </flow>
    <flow id="Car_Ground_N1_Port_R3" type="Car" begin="0.00" end="3600.00" perHour="13.70" from="409623411" to="133487534.268" color="0,100,255">
        <stop busStop="S" duration="2" />
    </flow>
    <flow id="SMV_Ground_N1_Port_R1" type="SMV" begin="0.00" end="3600.00" perHour="16.405" from="O1COPY_E33.8" to="133487534.268" color="0,100,255" />
    <flow id="SMV_Ground_N1_Port_R1b" type="SMV" begin="0.00" end="3600.00" perHour="16.405" from="O1COPY_-E32.8" to="133487534.268" color="0,100,255" />
    <flow id="SMV_Ground_N1_Port_R2" type="SMV" begin="0.00" end="3600.00" perHour="4.10" from="802491129#1" to="133487534.268" color="0,100,255" />
    <flow id="SMV_Ground_N1_Port_R3" type="SMV" begin="0.00" end="3600.00" perHour="4.10" from="409623411" to="133487534.268" color="0,100,255" />
    <flow id="Car_Ground_N1_South_R1" type="Car" begin="0.00" end="3600.00" perHour="26.005" from="O1COPY_E33.8" to="955410878.656.46" color="0,200,0" />
    <flow id="Car_Ground_N1_South_R1b" type="Car" begin="0.00" end="3600.00" perHour="26.005" from="O1COPY_-E32.8" to="955410878.656.46" color="0,200,0" />
    <flow id="Car_Ground_N1_South_R2" type="Car" begin="0.00" end="3600.00" perHour="6.50" from="802491129#1" to="955410878.656.46" color="0,200,0" />
    <flow id="Car_Ground_N1_South_R3" type="Car" begin="0.00" end="3600.00" perHour="6.50" from="409623411" to="955410878.656.46" color="0,200,0" />
    <flow id="SMV_Ground_N1_South_R1" type="SMV" begin="0.00" end="3600.00" perHour="54.00" from="O1COPY_E33.8" to="955410878.656.46" color="0,200,0" />
    <flow id="SMV_Ground_N1_South_R1b" type="SMV" begin="0.00" end="3600.00" perHour="54.00" from="O1COPY_-E32.8" to="955410878.656.46" color="0,200,0" />
    <flow id="SMV_Ground_N1_South_R2" type="SMV" begin="0.00" end="3600.00" perHour="13.50" from="802491129#1" to="955410878.656.46" color="0,200,0" />
    <flow id="SMV_Ground_N1_South_R3" type="SMV" begin="0.00" end="3600.00" perHour="13.50" from="409623411" to="955410878.656.46" color="0,200,0" />
    <flow id="Car_Ground_Port_N1_R1" type="Car" begin="0.00" end="3600.00" perHour="54.804" from="-133487534" to="O1COPY_-E33.8" color="255,255,0">
        <stop busStop="N" duration="2" />
    </flow>
    <flow id="Car_Ground_Port_N1_R1b" type="Car" begin="0.00" end="3600.00" perHour="54.804" from="-133487534" to="O1COPY_E32.8" color="255,255,0">
        <stop busStop="N" duration="2" />
    </flow>
    <flow id="Car_Ground_Port_N1_R2" type="Car" begin="0.00" end="3600.00" perHour="13.701" from="-133487534" to="955410838#0" color="255,255,0">
        <stop busStop="N" duration="2" />
    </flow>
    <flow id="Car_Ground_Port_N1_R3" type="Car" begin="0.00" end="3600.00" perHour="13.701" from="-133487534" to="434733273" color="255,255,0">
        <stop busStop="N" duration="2" />
    </flow>
    <flow id="SMV_Ground_Port_N1_R1" type="SMV" begin="0.00" end="3600.00" perHour="16.404" from="-133487534" to="O1COPY_-E33.8" color="255,255,0" />
    <flow id="SMV_Ground_Port_N1_R1b" type="SMV" begin="0.00" end="3600.00" perHour="16.404" from="-133487534" to="O1COPY_E32.8" color="255,255,0" />
    <flow id="SMV_Ground_Port_N1_R2" type="SMV" begin="0.00" end="3600.00" perHour="4.101" from="-133487534" to="955410838#0" color="255,255,0" />
    <flow id="SMV_Ground_Port_N1_R3" type="SMV" begin="0.00" end="3600.00" perHour="4.101" from="-133487534" to="434733273" color="255,255,0" />
    <flow id="Car_Ground_Port_South" type="Car" begin="0.00" end="3600.00" perHour="65.0" from="-133487534" to="955410878.656.46" color="0,200,0">
        <stop busStop="N" duration="2" />
    </flow>
    <flow id="SMV_Ground_Port_South" type="SMV" begin="0.00" end="3600.00" perHour="278.0" from="-133487534" to="955410878.656.46" color="0,200,0" />
</routes>