<?xml version="1.0" encoding="UTF-8"?>

<!-- generated on 2026-06-16T04:58:40.945269+00:00 by Eclipse SUMO netedit 1.26.0
<neteditConfiguration xmlns:xsi="http://www.w3.org/2001/XMLSchema-instance" xsi:noNamespaceSchemaLocation="http://sumo.dlr.de/xsd/neteditConfiguration.xsd">

    <input>
        <sumo-net-file value="C:\Users\15102\OneDrive - Imperial College London\Course Materials_Semester 3\CIVE70109_Group Design Project\Sumo File\updated total\Do-nothing_最终版\Do-nothing.net.xml"/>
    </input>

    <output>
        <output-file value="C:\Users\15102\OneDrive - Imperial College London\Course Materials_Semester 3\CIVE70109_Group Design Project\Sumo File\updated total\Do-nothing_最终版\Do-nothing.net.xml"/>
    </output>

    <processing>
        <geometry.min-radius.fix.railways value="false"/>
        <geometry.avoid-overlap value="false"/>
        <geometry.max-grade.fix value="false"/>
        <offset.disable-normalization value="true"/>
        <lefthand value="1"/>
    </processing>

    <junctions>
        <no-turnarounds value="true"/>
        <junctions.corner-detail value="5"/>
        <junctions.limit-turn-speed value="5.50"/>
        <rectangular-lane-cut value="0"/>
    </junctions>

    <pedestrian>
        <walkingareas value="0"/>
    </pedestrian>

</neteditConfiguration>
-->

<net version="1.20" junctionCornerDetail="5" lefthand="true" limitTurnSpeed="5.50" avoidOverlap="0" xmlns:xsi="http://www.w3.org/2001/XMLSchema-instance" xsi:noNamespaceSchemaLocation="http://sumo.dlr.de/xsd/net_file.xsd">

    <location netOffset="-371399.09,-2457698.19" convBoundary="0.00,0.00,13060.26,21963.23" origBoundary="91.750492,22.220607,92.259039,22.533403" projParameter="+proj=utm +zone=46 +ellps=WGS84 +datum=WGS84 +units=m +no_defs"/>

    <type id="highway.motorway" priority="14" numLanes="2" speed="39.44" allow="private emergency authority army vip passenger hov taxi bus coach delivery truck trailer motorcycle evehicle custom1 custom2" oneway="1"/>
    <type id="highway.primary" priority="12" numLanes="2" speed="27.78" disallow="tram rail_urban rail rail_electric rail_fast ship container cable_car subway aircraft wheelchair scooter drone" oneway="0"/>
    <type id="highway.primary_link" priority="7" numLanes="1" speed="22.22" disallow="tram rail_urban rail rail_electric rail_fast ship container cable_car subway aircraft wheelchair scooter drone" oneway="0"/>
    <type id="highway.trunk" priority="13" numLanes="2" speed="27.78" disallow="pedestrian bicycle tram rail_urban rail rail_electric rail_fast ship container cable_car subway aircraft wheelchair scooter drone" oneway="0"/>
    <type id="highway.trunk_link" priority="8" numLanes="1" speed="22.22" disallow="pedestrian bicycle tram rail_urban rail rail_electric rail_fast ship container cable_car subway aircraft wheelchair scooter drone" oneway="0"/>

    <edge id=":1049088341_0" function="internal">
        <lane id=":1049088341_0_0" index="0" disallow="pedestrian bicycle tram rail_urban rail rail_electric rail_fast ship container cable_car subway aircraft wheelchair scooter drone" speed="27.78" length="0.39" width="3.65" shape="1601.66,12553.66 1601.35,12554.00"/>
        <lane id=":1049088341_0_1" index="1" disallow="pedestrian bicycle tram rail_urban rail rail_electric rail_fast ship container cable_car subway aircraft wheelchair scooter drone" speed="27.78" length="0.39" width="3.65" shape="1604.27,12556.22 1604.05,12556.45"/>
    </edge>
    <edge id=":1049088341_2" function="internal">
        <lane id=":1049088341_2_0" index="0" disallow="pedestrian bicycle tram rail_urban rail rail_electric rail_fast ship container cable_car subway aircraft wheelchair scooter drone" speed="27.78" length="0.10" width="3.65" shape="1609.47,12561.34 1609.49,12561.33"/>
        <lane id=":1049088341_2_1" index="1" disallow="pedestrian bicycle tram rail_urban rail rail_electric rail_fast ship container cable_car subway aircraft wheelchair scooter drone" speed="27.78" length="0.10" width="3.65" shape="1606.76,12558.89 1606.88,12558.77"/>
    </edge>
    <edge id=":1049088412_0" function="internal">
        <lane id=":1049088412_0_0" index="0" disallow="pedestrian bicycle tram rail_urban rail rail_electric rail_fast ship container cable_car subway aircraft wheelchair scooter drone" speed="27.78" length="0.67" width="3.65" shape="1581.85,12575.59 1581.34,12576.18"/>
        <lane id=":1049088412_0_1" index="1" disallow="pedestrian bicycle tram rail_urban rail rail_electric rail_fast ship container cable_car subway aircraft wheelchair scooter drone" speed="27.78" length="0.67" width="3.65" shape="1584.55,12578.03 1584.20,12578.45"/>
    </edge>
    <edge id=":1049088412_2" function="internal">
        <lane id=":1049088412_2_0" index="0" disallow="pedestrian bicycle tram rail_urban rail rail_electric rail_fast ship container cable_car subway aircraft wheelchair scooter drone" speed="27.78" length="0.22" width="3.65" shape="1589.90,12583.01 1589.97,12582.93"/>
        <lane id=":1049088412_2_1" index="1" disallow="pedestrian bicycle tram rail_urban rail rail_electric rail_fast ship container cable_car subway aircraft wheelchair scooter drone" speed="27.78" length="0.22" width="3.65" shape="1587.05,12580.73 1587.26,12580.48"/>
    </edge>
    <edge id=":1049088539_0" function="internal">
        <lane id=":1049088539_0_0" index="0" disallow="pedestrian bicycle tram rail_urban rail rail_electric rail_fast ship container cable_car subway aircraft wheelchair scooter drone" speed="18.05" length="46.56" shape="944.08,15130.95 936.74,15084.97"/>
    </edge>
    <edge id=":1049088539_1" function="internal">
        <lane id=":1049088539_1_0" index="0" disallow="pedestrian bicycle tram rail_urban rail rail_electric rail_fast ship container cable_car subway aircraft wheelchair scooter drone" speed="18.05" length="46.37" shape="933.58,15085.48 940.89,15131.27"/>
    </edge>
    <edge id=":1049088831_0" function="internal">
        <lane id=":1049088831_0_0" index="0" disallow="pedestrian bicycle tram rail_urban rail rail_electric rail_fast ship container cable_car subway aircraft wheelchair scooter drone" speed="18.05" length="2.82" shape="952.54,14420.84 951.77,14423.55"/>
    </edge>
    <edge id=":1049088831_1" function="internal">
        <lane id=":1049088831_1_0" index="0" disallow="pedestrian bicycle tram rail_urban rail rail_electric rail_fast ship container cable_car subway aircraft wheelchair scooter drone" speed="18.05" length="3.09" shape="954.82,14424.54 955.65,14421.57"/>
    </edge>
    <edge id=":1049088962_0" function="internal">
        <lane id=":1049088962_0_0" index="0" disallow="tram rail_urban rail rail_electric rail_fast ship container cable_car subway aircraft wheelchair scooter drone" speed="27.78" length="0.20" shape="4640.10,9820.50 4639.99,9820.38"/>
        <lane id=":1049088962_0_1" index="1" disallow="tram rail_urban rail rail_electric rail_fast ship container cable_car subway aircraft wheelchair scooter drone" speed="27.78" length="0.20" shape="4637.80,9822.72 4637.63,9822.54"/>
    </edge>
    <edge id=":1049088962_2" function="internal">
        <lane id=":1049088962_2_0" index="0" disallow="tram rail_urban rail rail_electric rail_fast ship container cable_car subway aircraft wheelchair scooter drone" speed="27.78" length="0.35" shape="4632.93,9826.88 4633.19,9827.16"/>
        <lane id=":1049088962_2_1" index="1" disallow="tram rail_urban rail rail_electric rail_fast ship container cable_car subway aircraft wheelchair scooter drone" speed="27.78" length="0.35" shape="4635.28,9824.71 4635.49,9824.94"/>
    </edge>
    <edge id=":1049113761_0" function="internal">
        <lane id=":1049113761_0_0" index="0" disallow="pedestrian bicycle tram rail_urban rail rail_electric rail_fast ship container cable_car subway aircraft wheelchair scooter drone" speed="27.78" length="44.62" shape="12387.73,1270.74 12385.48,1280.17 12383.84,1292.52 12382.54,1304.96 12381.33,1314.67"/>
        <lane id=":1049113761_0_1" index="1" disallow="pedestrian bicycle tram rail_urban rail rail_electric rail_fast ship container cable_car subway aircraft wheelchair scooter drone" speed="27.78" length="44.62" shape="12390.73,1271.87 12388.48,1281.35 12386.83,1293.82 12385.54,1306.39 12384.33,1316.15"/>
    </edge>
    <edge id=":1049113761_2" function="internal">
        <lane id=":1049113761_2_0" index="0" disallow="pedestrian bicycle tram rail_urban rail rail_electric rail_fast ship container cable_car subway aircraft wheelchair scooter drone" speed="3.65" length="1.44" shape="12390.73,1271.87 12391.05,1273.27"/>
    </edge>
    <edge id=":1049113761_6" function="internal">
        <lane id=":1049113761_6_0" index="0" disallow="pedestrian bicycle tram rail_urban rail rail_electric rail_fast ship container cable_car subway aircraft wheelchair scooter drone" speed="3.65" length="3.23" shape="12391.05,1273.27 12391.66,1273.93 12392.55,1273.84 12393.72,1273.00"/>
    </edge>
    <edge id=":1049113761_3" function="internal">
        <lane id=":1049113761_3_0" index="0" disallow="pedestrian bicycle tram rail_urban rail rail_electric rail_fast ship container cable_car subway aircraft wheelchair scooter drone" speed="27.78" length="43.72" shape="12390.61,1317.35 12391.66,1307.74 12392.87,1295.54 12394.47,1283.43 12396.72,1274.12"/>
    </edge>
    <edge id=":1049113761_4" function="internal">
        <lane id=":1049113761_4_0" index="0" disallow="pedestrian bicycle tram rail_urban rail rail_electric rail_fast ship container cable_car subway aircraft wheelchair scooter drone" speed="5.62" length="6.77" shape="12390.61,1317.35 12389.30,1313.20 12387.52,1311.56"/>
    </edge>
    <edge id=":1049113761_5" function="internal">
        <lane id=":1049113761_5_0" index="0" disallow="pedestrian bicycle tram rail_urban rail rail_electric rail_fast ship container cable_car subway aircraft wheelchair scooter drone" speed="27.78" length="44.56" shape="12387.42,1317.04 12388.50,1307.30 12389.78,1294.82 12391.45,1282.43 12393.72,1273.00"/>
    </edge>
    <edge id=":1049113761_7" function="internal">
        <lane id=":1049113761_7_0" index="0" disallow="pedestrian bicycle tram rail_urban rail rail_electric rail_fast ship container cable_car subway aircraft wheelchair scooter drone" speed="5.62" length="7.33" shape="12387.52,1311.56 12387.31,1311.37 12384.66,1311.86 12381.33,1314.67"/>
    </edge>
    <edge id=":11124264315_0" function="internal">
        <lane id=":11124264315_0_0" index="0" disallow="pedestrian bicycle tram rail_urban rail rail_electric rail_fast ship container cable_car subway aircraft wheelchair scooter drone" speed="27.78" length="9.39" shape="4879.26,10849.59 4875.89,10858.35"/>
    </edge>
    <edge id=":11124264315_1" function="internal">
        <lane id=":11124264315_1_0" index="0" disallow="pedestrian bicycle tram rail_urban rail rail_electric rail_fast ship container cable_car subway aircraft wheelchair scooter drone" speed="6.81" length="9.60" shape="4879.26,10849.59 4878.63,10852.21 4878.93,10854.41 4880.15,10856.18 4882.28,10857.54"/>
    </edge>
    <edge id=":11124264315_2" function="internal">
        <lane id=":11124264315_2_0" index="0" disallow="pedestrian bicycle tram rail_urban rail rail_electric rail_fast ship container cable_car subway aircraft wheelchair scooter drone" speed="27.78" length="9.40" shape="4882.24,10850.73 4878.88,10859.50"/>
    </edge>
    <edge id=":11124264315_3" function="internal">
        <lane id=":11124264315_3_0" index="0" disallow="pedestrian bicycle tram rail_urban rail rail_electric rail_fast ship container cable_car subway aircraft wheelchair scooter drone" speed="6.66" length="9.84" shape="4883.58,10854.61 4881.09,10853.96 4878.99,10854.37 4877.25,10855.83 4875.89,10858.35"/>
    </edge>
    <edge id=":11124264315_4" function="internal">
        <lane id=":11124264315_4_0" index="0" disallow="pedestrian bicycle tram rail_urban rail rail_electric rail_fast ship container cable_car subway aircraft wheelchair scooter drone" speed="3.65" length="4.67" shape="4883.58,10854.61 4882.15,10854.86 4881.47,10855.43 4881.51,10856.32 4882.28,10857.54"/>
    </edge>
    <edge id=":11124264316_0" function="internal">
        <lane id=":11124264316_0_0" index="0" disallow="pedestrian bicycle tram rail_urban rail rail_electric rail_fast ship container cable_car subway aircraft wheelchair scooter drone" speed="27.78" length="9.27" shape="4886.93,10862.57 4890.15,10853.88"/>
    </edge>
    <edge id=":11124264316_1" function="internal">
        <lane id=":11124264316_1_0" index="0" disallow="pedestrian bicycle tram rail_urban rail rail_electric rail_fast ship container cable_car subway aircraft wheelchair scooter drone" speed="6.85" length="9.53" shape="4886.93,10862.57 4887.48,10859.98 4887.13,10857.80 4885.89,10856.04 4883.76,10854.69"/>
    </edge>
    <edge id=":11124264316_2" function="internal">
        <lane id=":11124264316_2_0" index="0" disallow="pedestrian bicycle tram rail_urban rail rail_electric rail_fast ship container cable_car subway aircraft wheelchair scooter drone" speed="27.78" length="9.36" shape="4883.92,10861.51 4887.17,10852.73"/>
    </edge>
    <edge id=":11124264316_3" function="internal">
        <lane id=":11124264316_3_0" index="0" disallow="pedestrian bicycle tram rail_urban rail rail_electric rail_fast ship container cable_car subway aircraft wheelchair scooter drone" speed="6.66" length="9.84" shape="4882.47,10857.62 4884.95,10858.27 4887.05,10857.86 4888.79,10856.40 4890.15,10853.88"/>
    </edge>
    <edge id=":11124264316_4" function="internal">
        <lane id=":11124264316_4_0" index="0" disallow="pedestrian bicycle tram rail_urban rail rail_electric rail_fast ship container cable_car subway aircraft wheelchair scooter drone" speed="3.65" length="4.67" shape="4882.47,10857.62 4883.89,10857.37 4884.58,10856.80 4884.53,10855.91 4883.76,10854.69"/>
    </edge>
    <edge id=":11168681419_0" function="internal">
        <lane id=":11168681419_0_0" index="0" disallow="tram rail_urban rail rail_electric rail_fast ship container cable_car subway aircraft wheelchair scooter drone" speed="27.78" length="1.17" shape="3937.88,2000.86 3938.04,2001.41 3938.17,2001.79 3938.34,2002.15 3938.62,2002.65"/>
        <lane id=":11168681419_0_1" index="1" disallow="tram rail_urban rail rail_electric rail_fast ship container cable_car subway aircraft wheelchair scooter drone" speed="27.78" length="1.17" shape="3940.96,2000.00 3941.06,2000.34 3941.14,2000.56 3941.24,2000.78 3941.41,2001.08"/>
        <lane id=":11168681419_0_2" index="2" disallow="tram rail_urban rail rail_electric rail_fast ship container cable_car subway aircraft wheelchair scooter drone" speed="27.78" length="1.17" shape="3944.05,1999.15 3944.08,1999.26 3944.11,1999.34 3944.14,1999.41 3944.20,1999.51"/>
    </edge>
    <edge id=":11168681425_0" function="internal">
        <lane id=":11168681425_0_0" index="0" disallow="tram rail_urban rail rail_electric rail_fast ship container cable_car subway aircraft wheelchair scooter drone" speed="17.92" length="26.20" shape="3971.35,2025.98 3979.19,2026.63 3984.75,2026.35 3989.86,2024.43 3996.32,2020.16"/>
        <lane id=":11168681425_0_1" index="1" disallow="tram rail_urban rail rail_electric rail_fast ship container cable_car subway aircraft wheelchair scooter drone" speed="17.63" length="26.20" shape="3971.64,2022.79 3979.20,2023.34 3984.54,2022.90 3989.44,2020.88 3995.68,2016.66"/>
    </edge>
    <edge id=":11168681425_2" function="internal">
        <lane id=":11168681425_2_0" index="0" disallow="tram rail_urban rail rail_electric rail_fast ship container cable_car subway aircraft wheelchair scooter drone" speed="27.78" length="5.51" shape="3971.93,2019.61 3977.34,2020.71"/>
        <lane id=":11168681425_2_1" index="1" disallow="tram rail_urban rail rail_electric rail_fast ship container cable_car subway aircraft wheelchair scooter drone" speed="27.78" length="8.22" shape="3971.93,2019.61 3979.83,2020.71 3980.07,2020.78"/>
    </edge>
    <edge id=":11168681425_4" function="internal">
        <lane id=":11168681425_4_0" index="0" disallow="tram rail_urban rail rail_electric rail_fast ship container cable_car subway aircraft wheelchair scooter drone" speed="17.34" length="24.91" shape="3971.93,2019.61 3979.22,2020.06 3984.34,2019.46 3989.03,2017.32 3995.03,2013.17"/>
    </edge>
    <edge id=":11168681425_5" function="internal">
        <lane id=":11168681425_5_0" index="0" disallow="tram rail_urban rail rail_electric rail_fast ship container cable_car subway aircraft wheelchair scooter drone" speed="27.78" length="20.62" shape="3977.34,2020.71 3979.79,2021.21 3985.20,2023.81 3989.98,2026.74 3995.94,2029.35"/>
        <lane id=":11168681425_5_1" index="0" disallow="tram rail_urban rail rail_electric rail_fast ship container cable_car subway aircraft wheelchair scooter drone" speed="27.78" length="17.45" shape="3980.07,2020.78 3985.49,2022.23 3990.55,2024.09 3996.64,2026.22"/>
    </edge>
    <edge id=":11168681432_0" function="internal">
        <lane id=":11168681432_0_0" index="0" disallow="tram rail_urban rail rail_electric rail_fast ship container cable_car subway aircraft wheelchair scooter drone" speed="27.78" length="17.24" shape="4019.11,2004.71 4016.66,2000.38 4014.33,1997.62 4012.54,1994.75 4011.70,1990.06"/>
        <lane id=":11168681432_0_1" index="1" disallow="tram rail_urban rail rail_electric rail_fast ship container cable_car subway aircraft wheelchair scooter drone" speed="27.78" length="17.24" shape="4016.12,2005.85 4013.55,2001.24 4011.17,1998.27 4009.35,1995.17 4008.50,1990.18"/>
    </edge>
    <edge id=":11168681432_2" function="internal">
        <lane id=":11168681432_2_0" index="0" disallow="tram rail_urban rail rail_electric rail_fast ship container cable_car subway aircraft wheelchair scooter drone" speed="20.50" length="16.34" shape="4009.80,2005.95 4012.18,2001.44 4013.84,1998.26 4014.75,1994.92 4014.90,1989.94"/>
        <lane id=":11168681432_2_1" index="1" disallow="tram rail_urban rail rail_electric rail_fast ship container cable_car subway aircraft wheelchair scooter drone" speed="20.03" length="16.34" shape="4006.59,2005.24 4008.90,2000.95 4010.56,1997.95 4011.52,1994.80 4011.70,1990.06"/>
        <lane id=":11168681432_2_2" index="2" disallow="tram rail_urban rail rail_electric rail_fast ship container cable_car subway aircraft wheelchair scooter drone" speed="19.55" length="16.34" shape="4003.37,2004.53 4005.62,2000.47 4007.29,1997.64 4008.29,1994.67 4008.50,1990.18"/>
    </edge>
    <edge id=":11238349366_0" function="internal">
        <lane id=":11238349366_0_0" index="0" disallow="bicycle tram rail_urban rail rail_electric rail_fast ship container cable_car subway aircraft wheelchair scooter drone" speed="27.78" length="15.80" shape="9156.56,16321.65 9141.02,16324.48"/>
    </edge>
    <edge id=":11238349366_1" function="internal">
        <lane id=":11238349366_1_0" index="0" disallow="pedestrian bicycle tram rail_urban rail rail_electric rail_fast ship container cable_car subway aircraft wheelchair scooter drone" speed="8.32" length="15.27" shape="9156.56,16321.65 9151.18,16322.99 9147.48,16324.76 9145.44,16326.94 9145.08,16329.55"/>
        <lane id=":11238349366_1_1" index="1" disallow="pedestrian bicycle tram rail_urban rail rail_electric rail_fast ship container cable_car subway aircraft wheelchair scooter drone" speed="7.57" length="12.44" shape="9156.56,16321.65 9152.56,16322.74 9149.84,16324.34 9148.40,16326.43 9148.23,16329.02"/>
    </edge>
    <edge id=":11238349366_3" function="internal">
        <lane id=":11238349366_3_0" index="0" disallow="bicycle tram rail_urban rail rail_electric rail_fast ship container cable_car subway aircraft wheelchair scooter drone" speed="27.78" length="15.80" shape="9157.13,16324.79 9141.59,16327.62"/>
    </edge>
    <edge id=":11238349366_4" function="internal">
        <lane id=":11238349366_4_0" index="0" disallow="pedestrian bicycle tram rail_urban rail rail_electric rail_fast ship container cable_car subway aircraft wheelchair scooter drone" speed="8.27" length="0.83" shape="9154.55,16327.97 9154.17,16327.22"/>
        <lane id=":11238349366_4_1" index="1" disallow="pedestrian bicycle tram rail_urban rail rail_electric rail_fast ship container cable_car subway aircraft wheelchair scooter drone" speed="6.91" length="0.68" shape="9151.39,16328.49 9150.98,16327.95"/>
    </edge>
    <edge id=":11238349366_6" function="internal">
        <lane id=":11238349366_6_0" index="0" disallow="pedestrian bicycle tram rail_urban rail rail_electric rail_fast ship container cable_car subway aircraft wheelchair scooter drone" speed="3.65" length="1.23" shape="9151.39,16328.49 9150.55,16327.60"/>
    </edge>
    <edge id=":11238349366_7" function="internal">
        <lane id=":11238349366_7_0" index="0" disallow="pedestrian bicycle tram rail_urban rail rail_electric rail_fast ship container cable_car subway aircraft wheelchair scooter drone" speed="8.27" length="14.54" shape="9154.17,16327.22 9153.34,16325.58 9150.68,16324.21 9146.57,16323.84 9141.02,16324.48"/>
        <lane id=":11238349366_7_1" index="0" disallow="pedestrian bicycle tram rail_urban rail rail_electric rail_fast ship container cable_car subway aircraft wheelchair scooter drone" speed="6.91" length="9.73" shape="9150.98,16327.95 9150.62,16327.48 9148.72,16326.99 9145.72,16327.04 9141.59,16327.62"/>
    </edge>
    <edge id=":11238349366_8" function="internal">
        <lane id=":11238349366_8_0" index="0" disallow="pedestrian bicycle tram rail_urban rail rail_electric rail_fast ship container cable_car subway aircraft wheelchair scooter drone" speed="3.65" length="3.45" shape="9150.55,16327.60 9150.40,16327.44 9149.55,16327.18 9148.82,16327.71 9148.23,16329.02"/>
    </edge>
    <edge id=":11238349367_0" function="internal">
        <lane id=":11238349367_0_0" index="0" disallow="bicycle tram rail_urban rail rail_electric rail_fast ship container cable_car subway aircraft wheelchair scooter drone" speed="27.78" length="15.80" shape="8581.11,16439.63 8596.89,16438.73"/>
    </edge>
    <edge id=":11238349367_1" function="internal">
        <lane id=":11238349367_1_0" index="0" disallow="pedestrian bicycle tram rail_urban rail rail_electric rail_fast ship container cable_car subway aircraft wheelchair scooter drone" speed="8.36" length="15.85" shape="8581.11,16439.63 8586.67,16438.90 8590.57,16437.45 8592.81,16435.28 8593.38,16432.38"/>
        <lane id=":11238349367_1_1" index="1" disallow="pedestrian bicycle tram rail_urban rail rail_electric rail_fast ship container cable_car subway aircraft wheelchair scooter drone" speed="7.62" length="12.99" shape="8581.11,16439.63 8585.28,16438.99 8588.18,16437.61 8589.82,16435.49 8590.19,16432.63"/>
    </edge>
    <edge id=":11238349367_3" function="internal">
        <lane id=":11238349367_3_0" index="0" disallow="bicycle tram rail_urban rail rail_electric rail_fast ship container cable_car subway aircraft wheelchair scooter drone" speed="27.78" length="15.80" shape="8580.93,16436.44 8596.71,16435.53"/>
    </edge>
    <edge id=":11238349367_4" function="internal">
        <lane id=":11238349367_4_0" index="0" disallow="pedestrian bicycle tram rail_urban rail rail_electric rail_fast ship container cable_car subway aircraft wheelchair scooter drone" speed="8.45" length="1.33" shape="8583.81,16433.13 8584.27,16434.38"/>
        <lane id=":11238349367_4_1" index="1" disallow="pedestrian bicycle tram rail_urban rail rail_electric rail_fast ship container cable_car subway aircraft wheelchair scooter drone" speed="7.10" length="1.33" shape="8587.00,16432.88 8587.61,16434.06"/>
    </edge>
    <edge id=":11238349367_6" function="internal">
        <lane id=":11238349367_6_0" index="0" disallow="pedestrian bicycle tram rail_urban rail rail_electric rail_fast ship container cable_car subway aircraft wheelchair scooter drone" speed="3.65" length="1.24" shape="8587.00,16432.88 8587.77,16433.86"/>
    </edge>
    <edge id=":11238349367_7" function="internal">
        <lane id=":11238349367_7_0" index="0" disallow="pedestrian bicycle tram rail_urban rail rail_electric rail_fast ship container cable_car subway aircraft wheelchair scooter drone" speed="8.45" length="14.36" shape="8584.27,16434.38 8584.82,16435.85 8587.33,16437.69 8591.36,16438.65 8596.89,16438.73"/>
        <lane id=":11238349367_7_1" index="0" disallow="pedestrian bicycle tram rail_urban rail rail_electric rail_fast ship container cable_car subway aircraft wheelchair scooter drone" speed="7.10" length="9.45" shape="8587.61,16434.06 8587.71,16434.24 8589.56,16435.14 8592.56,16435.57 8596.71,16435.53"/>
    </edge>
    <edge id=":11238349367_8" function="internal">
        <lane id=":11238349367_8_0" index="0" disallow="pedestrian bicycle tram rail_urban rail rail_electric rail_fast ship container cable_car subway aircraft wheelchair scooter drone" speed="3.65" length="3.43" shape="8587.77,16433.86 8587.90,16434.01 8588.73,16434.35 8589.49,16433.89 8590.19,16432.63"/>
    </edge>
    <edge id=":11238349368_0" function="internal">
        <lane id=":11238349368_0_0" index="0" disallow="bicycle tram rail_urban rail rail_electric rail_fast ship container cable_car subway aircraft wheelchair scooter drone" speed="27.78" length="15.53" shape="8595.42,16421.48 8579.96,16422.95"/>
    </edge>
    <edge id=":11238349368_1" function="internal">
        <lane id=":11238349368_1_0" index="0" disallow="pedestrian bicycle tram rail_urban rail rail_electric rail_fast ship container cable_car subway aircraft wheelchair scooter drone" speed="8.46" length="15.45" shape="8595.42,16421.48 8590.02,16422.52 8586.23,16424.13 8584.06,16426.29 8583.49,16429.01"/>
        <lane id=":11238349368_1_1" index="1" disallow="pedestrian bicycle tram rail_urban rail rail_electric rail_fast ship container cable_car subway aircraft wheelchair scooter drone" speed="7.72" length="12.71" shape="8595.42,16421.48 8591.41,16422.36 8588.62,16423.87 8587.04,16426.00 8586.68,16428.76"/>
    </edge>
    <edge id=":11238349368_3" function="internal">
        <lane id=":11238349368_3_0" index="0" disallow="bicycle tram rail_urban rail rail_electric rail_fast ship container cable_car subway aircraft wheelchair scooter drone" speed="27.78" length="15.71" shape="8595.81,16424.65 8580.17,16426.14"/>
    </edge>
    <edge id=":11238349368_4" function="internal">
        <lane id=":11238349368_4_0" index="0" disallow="pedestrian bicycle tram rail_urban rail rail_electric rail_fast ship container cable_car subway aircraft wheelchair scooter drone" speed="8.39" length="1.54" shape="8593.06,16428.25 8592.51,16426.81"/>
        <lane id=":11238349368_4_1" index="1" disallow="pedestrian bicycle tram rail_urban rail rail_electric rail_fast ship container cable_car subway aircraft wheelchair scooter drone" speed="7.04" length="1.28" shape="8589.87,16428.50 8589.26,16427.38"/>
    </edge>
    <edge id=":11238349368_6" function="internal">
        <lane id=":11238349368_6_0" index="0" disallow="pedestrian bicycle tram rail_urban rail rail_electric rail_fast ship container cable_car subway aircraft wheelchair scooter drone" speed="3.65" length="1.24" shape="8589.87,16428.50 8589.10,16427.53"/>
    </edge>
    <edge id=":11238349368_7" function="internal">
        <lane id=":11238349368_7_0" index="0" disallow="pedestrian bicycle tram rail_urban rail rail_electric rail_fast ship container cable_car subway aircraft wheelchair scooter drone" speed="8.39" length="14.03" shape="8592.51,16426.81 8592.06,16425.62 8589.54,16423.85 8585.51,16422.96 8579.96,16422.95"/>
        <lane id=":11238349368_7_1" index="0" disallow="pedestrian bicycle tram rail_urban rail rail_electric rail_fast ship container cable_car subway aircraft wheelchair scooter drone" speed="7.04" length="9.37" shape="8589.26,16427.38 8589.17,16427.23 8587.33,16426.42 8584.33,16426.05 8580.17,16426.14"/>
    </edge>
    <edge id=":11238349368_8" function="internal">
        <lane id=":11238349368_8_0" index="0" disallow="pedestrian bicycle tram rail_urban rail rail_electric rail_fast ship container cable_car subway aircraft wheelchair scooter drone" speed="3.65" length="3.43" shape="8589.10,16427.53 8588.98,16427.37 8588.15,16427.04 8587.38,16427.50 8586.68,16428.76"/>
    </edge>
    <edge id=":11323304681_0" function="internal">
        <lane id=":11323304681_0_0" index="0" allow="private emergency authority army vip passenger hov taxi bus coach delivery truck trailer motorcycle evehicle custom1 custom2" speed="16.67" length="0.20" shape="8953.76,232.03 8953.66,232.04"/>
        <lane id=":11323304681_0_1" index="1" allow="private emergency authority army vip passenger hov taxi bus coach delivery truck trailer motorcycle evehicle custom1 custom2" speed="16.67" length="0.20" shape="8954.14,235.21 8953.84,235.23"/>
    </edge>
    <edge id=":1145329245_0" function="internal">
        <lane id=":1145329245_0_0" index="0" disallow="pedestrian bicycle tram rail_urban rail rail_electric rail_fast ship container cable_car subway aircraft wheelchair scooter drone" speed="27.78" length="0.27" shape="12376.57,1352.48 12376.54,1352.82"/>
        <lane id=":1145329245_0_1" index="1" disallow="pedestrian bicycle tram rail_urban rail rail_electric rail_fast ship container cable_car subway aircraft wheelchair scooter drone" speed="27.78" length="0.27" shape="12379.75,1352.84 12379.74,1353.03"/>
    </edge>
    <edge id=":11578025005_0" function="internal">