<?xml version="1.0" encoding="UTF-8"?>

<!-- generated on 2026-06-02T20:02:13.174488+00:00 by Eclipse SUMO netedit 1.26.0
-->

<additional xmlns:xsi="http://www.w3.org/2001/XMLSchema-instance" xsi:noNamespaceSchemaLocation="http://sumo.dlr.de/xsd/additional_file.xsd">
    <!-- StoppingPlaces -->
    <busStop id="N" name="toll" lane="-1074327503_0" startPos="543.82" endPos="545.82"/>
    <busStop id="S" name="toll" lane="1074327503_0" startPos="1095.30" endPos="1097.30"/>
</additional>
